@<TRIPOS>MOLECULE
ZINC03161082
18 18
SMALL
USER_CHARGES

@<TRIPOS>ATOM
	1		C1		-3.9868		0.6053		0.5462		C.3		1		<0>		-0.1865		
	2		C2		-2.8512		0.7024		-0.4745		C.3		1		<0>		-0.7105		
	3		C3		-2.8092		2.1163		-1.0576		C.3		1		<0>		-0.1911		
	4		P1		-1.2646		0.3356		0.3448		P.3		1		<0>		2.5058		
	5		O1		-1.0848		1.2427		1.5003		O.2		1		<0>		-1.0449		
	6		C4		0.101		0.5802		-0.8379		C.3		1		<0>		-0.763		
	7		C5		1.4386		0.4331		-0.11		C.3		1		<0>		-0.1321		
	8		C6		2.1505		1.7613		-0.094		C.2		1		<0>		0.3407		
	9		O2		1.6384		2.7301		-0.6137		O.2		1		<0>		-0.3387		
	10		N1		3.3563		1.8726		0.4977		N.am		1		<0>		-0.3133		
	11		N2		4.0016		3.0764		0.5122		N.3		1		<0>		-0.2075		
	12		C7		2.29		-0.5846		-0.8243		C.2		1		<0>		0.2953		
	13		O3		3.2467		-0.2242		-1.4768		O.2		1		<0>		-0.3173		
	14		N3		1.9883		-1.8953		-0.7381		N.am		1		<0>		-0.3491		
	15		N4		2.8199		-2.8257		-1.2939		N.3		1		<0>		-0.2113		
	16		C8		-1.265		-1.393		0.9237		C.3		1		<0>		-0.7227		
	17		C9		-1.2659		-2.3346		-0.2823		C.3		1		<0>		-0.2161		
	18		C10		-0.0154		-1.6481		1.7688		C.3		1		<0>		-0.2038		
@<TRIPOS>BOND
	1		1		2		1		
	2		2		3		1		
	3		2		4		1		
	4		4		5		2		
	5		4		6		1		
	6		4		16		1		
	7		6		7		1		
	8		7		8		1		
	9		7		12		1		
	10		8		9		2		
	11		8		10		am		
	12		10		11		1		
	13		12		13		2		
	14		12		14		am		
	15		14		15		1		
	16		16		17		1		
	17		16		18		1		
