@<TRIPOS>MOLECULE
****
23 23
SMALL
USER_CHARGES

@<TRIPOS>ATOM
	1		C1		0.9726		-4.2561		-0.146		C.2		1		<0>		0.0942		
	2		O1		2.2814		-4.4039		-0.3665		O.co2		1		<0>		-0.5426		
	3		O2		0.2071		-5.1602		-0.0313		O.co2		1		<0>		-0.5426		
	4		C2		0.457		-2.8788		-0.057		C.2		1		<0>		0.0969		
	5		C3		-0.8391		-2.6636		0.2218		C.2		1		<0>		-0.0302		
	6		C4		-1.3968		-1.2736		0.277		C.3		1		<0>		0.0689		
	7		C5		-0.4915		-0.275		-0.3481		C.3		1		<0>		0.0743		
	8		N1		-0.8408		1.0709		0.0824		N.am		1		<0>		-0.308		
	9		C6		-1.4221		1.9767		-0.7094		C.2		1		<0>		0.2103		
	10		O3		-1.5818		1.8289		-1.9043		O.2		1		<0>		-0.2761		
	11		C7		-1.9023		3.2264		0.0007		C.3		1		<0>		0.0122		
	12		C8		0.9682		-0.5808		0.1032		C.3		1		<0>		0.1138		
	13		O4		1.3264		-1.909		-0.2672		O.3		1		<0>		-0.3354		
	14		C9		2.0572		0.4121		-0.2731		C.3		1		<0>		0.1115		
	15		O5		1.6667		0.3192		-1.3016		O.3		1		<0>		-0.3865		
	16		C10		3.3882		0.0782		0.161		C.3		1		<0>		0.1065		
	17		O6		3.2579		0.143		1.584		O.3		1		<0>		-0.3869		
	18		C11		4.4852		1.0371		-0.2978		C.3		1		<0>		0.0727		
	19		O7		4.3383		2.3001		0.3502		O.3		1		<0>		-0.3924		
	20		N2		-2.7204		-1.1591		-0.2962		N.pl3		1		<0>		-0.2712		
	21		C12		-3.616		-0.2866		0.1576		C.cat		1		<0>		0.3219		
	22		N3		-3.3891		0.4329		1.2621		N.pl3		1		<0>		-0.293		
	23		N4		-4.7237		-0.0928		-0.5532		N.pl3		1		<0>		-0.2029		
@<TRIPOS>BOND
	1		1		4		1		
	2		1		3		2		
	3		1		2		1		
	4		4		13		1		
	5		4		5		2		
	6		5		6		1		
	7		6		20		1		
	8		6		7		1		
	9		7		12		1		
	10		7		8		1		
	11		8		9		am		
	12		9		11		1		
	13		9		10		2		
	14		12		14		1		
	15		12		13		1		
	16		14		16		1		
	17		14		15		1		
	18		16		18		1		
	19		16		17		1		
	20		18		19		1		
	21		20		21		1		
	22		21		23		2		
	23		21		22		1		
