@<TRIPOS>MOLECULE
5460308
8 7
SMALL
USER_CHARGES

@<TRIPOS>ATOM
	1		O		-1.46536		-0.353626		0.0015778		O.3		1		UNL1		-0.68		
	2		O		0.706847		-1.50675		-0.00171053		O.co2		1		UNL1		-0.9		
	3		O		2.01912		0.390367		0.00166215		O.co2		1		UNL1		-0.9		
	4		C		-0.359563		0.571224		-0.000251279		C.3		1		UNL1		0.174		
	5		C		0.939101		-0.255374		2.977e-05		C.2		1		UNL1		0.906		
	6		H		-0.425017		1.19045		-0.898241		H		1		UNL1		0		
	7		H		-0.42493		1.19218		0.895894		H		1		UNL1		0		
	8		H		-0.990196		-1.22847		0.00103928		H		1		UNL1		0.4		
@<TRIPOS>BOND
	1		1		4		1		
	2		1		8		1		
	3		2		5		ar		
	4		3		5		ar		
	5		4		5		1		
	6		4		6		1		
	7		4		7		1		
