@<TRIPOS>MOLECULE
DB09157
3 2
SMALL
USER_CHARGES

@<TRIPOS>ATOM
	1		C		0.820933		-0.536139		-0.000194432		C.1		1		LIG1		0.974		
	2		O		-0.355067		-0.536298		-0.000326793		O.2		1		LIG1		-0.487		
	3		O		1.99693		-0.535981		-6.20714e-05		O.2		1		LIG1		-0.487		
@<TRIPOS>BOND
	1		1		2		2		
	2		1		3		2		
